Circuit: * C:\Users\anico\Desktop\Ecole\5a\Projet Majeur\Hardware\Pont en H\Simulation\Pont en H - Driver.asc

Instance "m:u1:_gd_template:_ho_stage:_ho_pmos": Length shorter than recommended for a level 1 MOSFET.
Instance "m:u1:_gd_template:_ho_stage:_ho_nmos": Length shorter than recommended for a level 1 MOSFET.
Instance "m:u1:_gd_template:_lo_stage:_lo_pmos": Length shorter than recommended for a level 1 MOSFET.
Instance "m:u1:_gd_template:_lo_stage:_lo_nmos": Length shorter than recommended for a level 1 MOSFET.
Direct Newton iteration failed to find .op point.  (Use ".option noopiter" to skip.)
Starting Gmin stepping
Gmin = 10
Gmin = 1.07374
vernier = 0.5
vernier = 0.25
vernier = 0.125
vernier = 0.0625
Gmin = 0.995033
vernier = 0.03125
vernier = 0.015625
vernier = 0.0078125
vernier = 0.00390625
Gmin = 0.999816
vernier = 0.00195312
vernier = 0.000976562
vernier = 0.000488281
Gmin = 0
Gmin stepping failed

Starting source stepping with srcstepmethod=0
Source Step = 3.0303%
Source Step = 33.3333%
Source Step = 50.1894%
vernier = 0.015625
Source Step = 50.0237%
Starting source stepping with srcstepmethod=1
Source Step = 3.0303%
Source Step = 33.3333%
Source Step = 50.1894%
vernier = 0.015625
Source stepping failed

Pseudo Transient failed in finding the operating point at 5.625 µs.
Trouble finding operating point....skipping operating point for Transient analysis.
Changing Tseed to 9.76562e-09
Changing Tseed to 9.76563e-11
Changing Tseed to 9.76562e-08
Changing Tseed to 9.76562e-12
Changing Tseed to 9.76563e-07
Changing Tseed to 9.76562e-13
to 1.09863e-12
Heightened Def Con from 1.53759e-07 to 1.54509e-07
Heightened Def Con from 0.00100016 to 0.00100016
Heightened Def Con from 0.00250015 to 0.00250016
Heightened Def Con from 0.00300015 to 0.00300016
Heightened Def Con from 0.00400015 to 0.00400015
Heightened Def Con from 0.00450015 to 0.00450015
Heightened Def Con from 0.00550015 to 0.00550015
Heightened Def Con from 0.00600015 to 0.00600015
Heightened Def Con from 0.00700015 to 0.00700015
Heightened Def Con from 0.00750015 to 0.00750015
Heightened Def Con from 0.00850015 to 0.00850015
Heightened Def Con from 0.00900015 to 0.00900015

Date: Thu Sep 26 17:03:46 2024
Total elapsed time: 1.391 seconds.

tnom = 27
temp = 27
method = modified trap
totiter = 46179
traniter = 27875
tranpoints = 10669
accept = 8094
rejected = 2950
matrix size = 292
fillins = 133
solver = Normal
Avg thread counts: 1.0/4.0/1.1/1.0
Matrix Compiler1: 14.96 KB object code size  2.1/1.2/[0.7]
Matrix Compiler2: 21.17 KB object code size  1.3/1.7/[0.8]

